[Format]      =  4.0
[Frequency]   =  0
[Precision]   =  1e-008
[MinAngle]    =  15
[Depth]       =  1
[LengthUnits] =  millimeters
[ProblemType] =  planar
[Coordinates] =  cartesian
[ACSolver]    =  0
[PrevSoln]    = ""
[PrevType]    =  0
[Comment]     =  "Add comments here."
[PointProps]  =  0
[BdryProps]   = 5
  <BeginBdry>
    <BdryName> = "A=0"
    <BdryType> = 0
    <A_0> = 0
    <A_1> = 0
    <A_2> = 0
    <Phi> = 0
    <c0> = 0
    <c0i> = 0
    <c1> = 0
    <c1i> = 0
    <Mu_ssd> = 0
    <Sigma_ssd> = 0
    <innerangle> = 0
    <outerangle> = 0
  <EndBdry>
  <BeginBdry>
    <BdryName> = "antiAir1"
    <BdryType> = 7
    <A_0> = 0
    <A_1> = 0
    <A_2> = 0
    <Phi> = 0
    <c0> = 0
    <c0i> = 0
    <c1> = 0
    <c1i> = 0
    <Mu_ssd> = 0
    <Sigma_ssd> = 0
    <innerangle> = -0.71456641837612456
    <outerangle> = 0
  <EndBdry>
  <BeginBdry>
    <BdryName> = "antiAir2"
    <BdryType> = 7
    <A_0> = 0
    <A_1> = 0
    <A_2> = 0
    <Phi> = 0
    <c0> = 0
    <c0i> = 0
    <c1> = 0
    <c1i> = 0
    <Mu_ssd> = 0
    <Sigma_ssd> = 0
    <innerangle> = 0.71456641837612456
    <outerangle> = 0
  <EndBdry>
  <BeginBdry>
    <BdryName> = "periAir1"
    <BdryType> = 6
    <A_0> = 0
    <A_1> = 0
    <A_2> = 0
    <Phi> = 0
    <c0> = 0
    <c0i> = 0
    <c1> = 0
    <c1i> = 0
    <Mu_ssd> = 0
    <Sigma_ssd> = 0
    <innerangle> = -0.71456641837612456
    <outerangle> = 0
  <EndBdry>
  <BeginBdry>
    <BdryName> = "periAir2"
    <BdryType> = 6
    <A_0> = 0
    <A_1> = 0
    <A_2> = 0
    <Phi> = 0
    <c0> = 0
    <c0i> = 0
    <c1> = 0
    <c1i> = 0
    <Mu_ssd> = 0
    <Sigma_ssd> = 0
    <innerangle> = 0.71456641837612456
    <outerangle> = 0
  <EndBdry>
[BlockProps]  = 4
  <BeginBlock>
    <BlockName> = "M15"
    <Mu_x> = 1
    <Mu_y> = 1
    <H_c> = 0
    <H_cAngle> = 0
    <J_re> = 0
    <J_im> = 0
    <Sigma> = 1.9342359767891681
    <d_lam> = 0.34999999999999998
    <Phi_h> = 0
    <Phi_hx> = 0
    <Phi_hy> = 0
    <LamType> = 0
    <LamFill> = 0.96999999999999997
    <NStrands> = 0
    <WireD> = 0
    <BHPoints> = 1000
      0	0
      0.0025025025025025025	0.19923231623255899
      0.005005005005005005	0.3984668074407085
      0.0075075075075075074	0.59770351686231815
      0.01001001001001001	0.79694248859481331
      0.012512512512512513	0.99618376761226335
      0.015015015015015015	1.1954273997828082
      0.017517517517517518	1.3946734318864333
      0.02002002002002002	1.5939219116330956
      0.022522522522522521	1.7931728876812119
      0.025025025025025027	1.9924264096565143
      0.027527527527527528	2.1916825281712784
      0.03003003003003003	2.3909412948439379
      0.032532532532532535	2.5902027623190849
      0.035035035035035036	2.7894669842878699
      0.037537537537537538	2.988734015508808
      0.04004004004004004	3.1880039118289973
      0.042542542542542541	3.3872767302057585
      0.045045045045045043	3.5865525287287072
      0.047547547547547545	3.7858313666422636
      0.050050050050050053	3.9851133043686091
      0.052552552552552555	4.1843984035310982
      0.055055055055055056	4.3836867269781408
      0.057557557557557558	4.5829783388075542
      0.06006006006006006	4.782273304391401
      0.062562562562562568	4.9815716904013208
      0.06506506506506507	5.1808735648343642
      0.067567567567567571	5.3801789970393434
      0.070070070070070073	5.5794880577437045
      0.072572572572572575	5.7788008190809332
      0.075075075075075076	5.978117354618508
      0.077577577577577578	6.1774377393864048
      0.080080080080080079	6.3767620499061755
      0.082582582582582581	6.5760903642205948
      0.085085085085085083	6.7754227619239051
      0.087587587587587584	6.9747593241926582
      0.090090090090090086	7.1741001338171717
      0.092592592592592587	7.3734452752336095
      0.095095095095095089	7.5727948345566993
      0.097597597597597591	7.7721488996131054
      0.10010010010010011	7.9715075599754606
      0.10260260260260261	8.1708709069970684
      0.10510510510510511	8.3702390338473158
      0.10760760760760761	8.569612035547765
      0.11011011011011011	8.7689900090089772
      0.11261261261261261	8.968373053068067
      0.11511511511511512	9.167761268527002
      0.11761761761761762	9.3671547581916617
      0.12012012012012012	9.5665536269116735
      0.12262262262262262	9.765957981621046
      0.12512512512512514	9.9653679313796015
      0.12762762762762764	10.164783587415235
      0.13013013013013014	10.364205063167024
      0.13263263263263264	10.563632474329177
      0.13513513513513514	10.763065938895869
      0.13763763763763764	10.962505577206962
      0.14014014014014015	11.161951511994637
      0.14264264264264265	11.361403868430955
      0.14514514514514515	11.560862774176359
      0.14764764764764765	11.760328359429138
      0.15015015015015015	11.95980075697589
      0.15265265265265265	12.159280102242963
      0.15515515515515516	12.358766533348945
      0.15765765765765766	12.558260191158173
      0.16016016016016016	12.757761219335327
      0.16266266266266266	12.957269764401095
      0.16516516516516516	13.156785975788953
      0.16766766766766766	13.356310005903065
      0.17017017017017017	13.555842010177345
      0.17267267267267267	13.755382147135684
      0.17517517517517517	13.954930578453377
      0.17767767767767767	14.154487469019777
      0.18018018018018017	14.354052987002184
      0.18268268268268267	14.553627303911011
      0.18518518518518517	14.753210594666244
      0.18768768768768768	14.952803037665227
      0.19019019019019018	15.152404814851783
      0.19269269269269268	15.352016111786725
      0.19519519519519518	15.551637117719752
      0.19769769769769771	15.751268025662794
      0.20020020020020021	15.950909032464791
      0.20270270270270271	16.150560338887981
      0.20520520520520522	16.350222149685692
      0.20770770770770772	16.549894673681685
      0.21021021021021022	16.749578123851066
      0.21271271271271272	16.949272717402824
      0.21521521521521522	17.148978675863994
      0.21771771771771772	17.34869622516549
      0.22022022022022023	17.548425595729672
      0.22272272272272273	17.748167022559617
      0.22522522522522523	17.947920745330187
      0.22772772772772773	18.147687008480908
      0.23023023023023023	18.347466061310683
      0.23273273273273273	18.547258158074396
      0.23523523523523523	18.74706355808144
      0.23773773773773774	18.946882525796191
      0.24024024024024024	19.146715330940495
      0.24274274274274274	19.346562248598179
      0.24524524524524524	19.546423559321649
      0.24774774774774774	19.746299549240604
      0.25025025025025027	19.946190510172904
      0.25275275275275277	20.146096739737654
      0.25525525525525528	20.346018541470535
      0.25775775775775778	20.545956224941413
      0.26026026026026028	20.745910105874302
      0.26276276276276278	20.94588050626971
      0.26526526526526528	21.145867754529402
      0.26776776776776778	21.345872185583669
      0.27027027027027029	21.545894141021108
      0.27277277277277279	21.745933969220975
      0.27527527527527529	21.945992025488195
      0.27777777777777779	22.146068672191042
      0.28028028028028029	22.346164278901544
      0.28278278278278279	22.546279222538697
      0.28528528528528529	22.746413887514528
      0.2877877877877878	22.946568665883042
      0.2902902902902903	23.146743957492145
      0.2927927927927928	23.346940170138584
      0.2952952952952953	23.547157719725973
      0.2977977977977978	23.747397030425944
      0.3003003003003003	23.947658534842521
      0.30280280280280281	24.147942674179745
      0.30530530530530531	24.34824989841265
      0.30780780780780781	24.548580666461611
      0.31031031031031031	24.74893544637019
      0.31281281281281281	24.949314715486491
      0.31531531531531531	25.14971896064813
      0.31781781781781782	25.350148678370896
      0.32032032032032032	25.550604375041132
      0.32282282282282282	25.751086567111969
      0.32532532532532532	25.951595781303443
      0.32782782782782782	26.152132554806606
      0.33033033033033032	26.352697435491674
      0.33283283283283283	26.55329098212033
      0.33533533533533533	26.753913764562249
      0.33783783783783783	26.954566364015903
      0.34034034034034033	27.155249373233794
      0.34284284284284283	27.35596339675212
      0.34534534534534533	27.556709051125054
      0.34784784784784784	27.757486965163636
      0.35035035035035034	27.95829778017945
      0.35285285285285284	28.159142150233116
      0.35535535535535534	28.360020742387743
      0.35785785785785784	28.560934236967416
      0.36036036036036034	28.761883327820808
      0.36286286286286284	28.962868722590049
      0.36536536536536535	29.163891142984941
      0.36786786786786785	29.364951325062599
      0.37037037037037035	29.566050019512687
      0.37287287287287285	29.767187991948301
      0.37537537537537535	29.968366023202634
      0.37787787787787785	30.169584909631546
      0.38038038038038036	30.370845463422157
      0.38288288288288286	30.572148512907557
      0.38538538538538536	30.773494902887776
      0.38788788788788786	30.974885494957157
      0.39039039039039036	31.176321167838193
      0.39289289289289292	31.377802817722053
      0.39539539539539542	31.579331358615821
      0.39789789789789792	31.780907722696707
      0.40040040040040042	31.982532860673221
      0.40290290290290293	32.184207742153589
      0.40540540540540543	32.385933356021468
      0.40790790790790793	32.587710710819124
      0.41041041041041043	32.78954083513824
      0.41291291291291293	32.991424778018491
      0.41541541541541543	33.19336360935403
      0.41791791791791794	33.395358420308078
      0.42042042042042044	33.597410323735723
      0.42292292292292294	33.799520454615163
      0.42542542542542544	34.001689970487497
      0.42792792792792794	34.20392005190525
      0.43043043043043044	34.406211902889844
      0.43293293293293295	34.608566751398136
      0.43543543543543545	34.81098584979825
      0.43793793793793795	35.013470475354843
      0.44044044044044045	35.216021930724061
      0.44294294294294295	35.418641544458282
      0.44544544544544545	35.621330671520937
      0.44794794794794796	35.824090693811534
      0.45045045045045046	36.026923020701133
      0.45295295295295296	36.229829089578466
      0.45545545545545546	36.432810366406919
      0.45795795795795796	36.635868346292568
      0.46046046046046046	36.839004554063528
      0.46296296296296297	37.042220544860797
      0.46546546546546547	37.245517904740865
      0.46796796796796797	37.448898251290302
      0.47047047047047047	37.65236323425254
      0.47297297297297297	37.855914536167134
      0.47547547547547547	38.059553873021741
      0.47797797797797797	38.263282994917041
      0.48048048048048048	38.467103686744871
      0.48298298298298298	38.671017768879857
      0.48548548548548548	38.875027097884789
      0.48798798798798798	39.079133567230024
      0.49049049049049048	39.283339108027164
      0.49299299299299298	39.487645689777359
      0.49549549549549549	39.692055321134454
      0.49799799799799799	39.896570050683309
      0.50050050050050054	40.101191967733612
      0.50300300300300305	40.305923203129446
      0.50550550550550555	40.510765930074982
      0.50800800800800805	40.71572236497655
      0.51051051051051055	40.920794768301469
      0.51301301301301305	41.125985445453942
      0.51551551551551555	41.331296747668368
      0.51801801801801806	41.536731072920418
      0.52052052052052056	41.742290866856216
      0.52302302302302306	41.947978623739964
      0.52552552552552556	42.153796887420462
      0.52802802802802806	42.359748252316798
      0.53053053053053056	42.565835364423627
      0.53303303303303307	42.772060922336472
      0.53553553553553557	42.978427678297372
      0.53803803803803807	43.18493843926133
      0.54054054054054057	43.391596067983969
      0.54304304304304307	43.598403484130777
      0.54554554554554557	43.805363665408443
      0.54804804804804808	44.012479648718653
      0.55055055055055058	44.219754531334843
      0.55305305305305308	44.427191472102315
      0.55555555555555558	44.634793692662242
      0.55805805805805808	44.842564478699984
      0.56056056056056058	45.050507181218222
      0.56306306306306309	45.258625217835402
      0.56556556556556559	45.466922074109995
      0.56806806806806809	45.675401304891075
      0.57057057057057059	45.88406653569573
      0.57307307307307309	46.092921464113886
      0.57557557557557559	46.301969861241027
      0.57807807807807809	46.511215573139417
      0.5805805805805806	46.720662522328347
      0.5830830830830831	46.930314709304014
      0.5855855855855856	47.140176214089628
      0.5880880880880881	47.350251197816299
      0.5905905905905906	47.56054390433539
      0.5930930930930931	47.771058661862881
      0.59559559559559561	47.981799884656446
      0.59809809809809811	48.192772074725852
      0.60060060060060061	48.403979823577359
      0.60310310310310311	48.61542781399281
      0.60560560560560561	48.827120821844069
      0.60810810810810811	49.03906371794352
      0.61061061061061062	49.251261469931379
      0.61311311311311312	49.463719144200489
      0.61561561561561562	49.676441907859392
      0.61811811811811812	49.889435030734425
      0.62062062062062062	50.102703887411593
      0.62312312312312312	50.316253959319063
      0.62562562562562563	50.530090836851016
      0.62812812812812813	50.744220221533737
      0.63063063063063063	50.958647928234761
      0.63313313313313313	51.173379887415926
      0.63563563563563563	51.388422147431207
      0.63813813813813813	51.603780876870225
      0.64064064064064064	51.819462366948351
      0.64314314314314314	52.035473033944299
      0.64564564564564564	52.2518194216862
      0.64814814814814814	52.468508204087051
      0.65065065065065064	52.685546187730601
      0.65315315315315314	52.902940314508598
      0.65565565565565564	53.120697664310498
      0.65815815815815815	53.338825457766603
      0.66066066066066065	53.557331059045737
      0.66316316316316315	53.776221978708534
      0.66566566566566565	53.995505876617436
      0.66816816816816815	54.215190564904525
      0.67067067067067065	54.435284010998352
      0.67317317317317316	54.655794340710933
      0.67567567567567566	54.876729841386094
      0.67817817817817816	55.098098965110388
      0.68068068068068066	55.319910331987863
      0.68318318318318316	55.54217273347988
      0.68568568568568566	55.764895135811344
      0.68818818818818817	55.988086683444621
      0.69069069069069067	56.211756702622495
      0.69319319319319317	56.435914704981577
      0.69569569569569567	56.660570391237513
      0.69819819819819817	56.885733654943408
      0.70070070070070067	57.111414586323015
      0.70320320320320318	57.337623476180063
      0.70570570570570568	57.564370819885283
      0.70820820820820818	57.791667321442723
      0.71071071071071068	58.019523897636837
      0.71321321321321318	58.247951682261998
      0.71571571571571568	58.476962030436113
      0.71821821821821819	58.706566522999928
      0.72072072072072069	58.936776971003809
      0.72322322322322319	59.16760542028365
      0.72572572572572569	59.399064156127771
      0.72822822822822819	59.631165708036534
      0.73073073073073069	59.863922854576586
      0.73323323323323319	60.097348628331538
      0.7357357357357357	60.331456320951091
      0.7382382382382382	60.566259488300439
      0.7407407407407407	60.801771955712084
      0.7432432432432432	61.038007823341964
      0.7457457457457457	61.274981471632074
      0.7482482482482482	61.512707566881616
      0.75075075075075071	61.751201066928893
      0.75325325325325321	61.990477226946119
      0.75575575575575571	62.230551605349362
      0.75825825825825821	62.471440069825988
      0.76076076076076071	62.713158803481839
      0.76326326326326321	62.955724311110615
      0.76576576576576572	63.199153425587816
      0.76826826826826822	63.443463314391764
      0.77077077077077072	63.688671486254215
      0.77327327327327322	63.934795797943131
      0.77577577577577572	64.181854461180237
      0.77827827827827822	64.429866049696074
      0.78078078078078073	64.678849506425209
      0.78328328328328334	64.928824150844449
      0.78578578578578584	65.179809686456849
      0.78828828828828834	65.431826208424539
      0.79079079079079084	65.684894211353068
      0.79329329329329334	65.939034597230574
      0.79579579579579585	66.194268683524626
      0.79829829829829835	66.450618211440002
      0.80080080080080085	66.708105354340546
      0.80330330330330335	66.96675272633837
      0.80580580580580585	67.226583391053694
      0.80830830830830835	67.487620870548824
      0.81081081081081086	67.749889154439543
      0.81331331331331336	68.013412709187662
      0.81581581581581586	68.278216487578106
      0.81831831831831836	68.544325938384375
      0.82082082082082086	68.811767016225986
      0.82332332332332336	69.080566191621855
      0.82582582582582587	69.350750461243365
      0.82832832832832837	69.62234735837113
      0.83083083083083087	69.895384963559593
      0.83333333333333337	70.169891915513475
      0.83583583583583587	70.445897422180266
      0.83833833833833837	70.723431272063195
      0.84084084084084088	71.002523845758859
      0.84334334334334338	71.283206127724142
      0.84584584584584588	71.565509718276871
      0.84834834834834838	71.849466845834939
      0.85085085085085088	72.135110379398469
      0.85335335335335338	72.422473841280066
      0.85585585585585588	72.711591420087913
      0.85835835835835839	73.002497983966748
      0.86086086086086089	73.295229094101956
      0.86336336336336339	73.589821018491861
      0.86586586586586589	73.88631074599364
      0.86836836836836839	74.184736000648229
      0.87087087087087089	74.485135256289752
      0.8733733733733734	74.787547751445231
      0.8758758758758759	75.092013504530158
      0.8783783783783784	75.398573329346007
      0.8808808808808809	75.707268850885441
      0.8833833833833834	76.018142521451594
      0.8858858858858859	76.331237637097402
      0.88838838838838841	76.6465983543915
      0.89089089089089091	76.964269707517118
      0.89339339339339341	77.284297625710579
      0.89589589589589591	77.606728951046094
      0.89839839839839841	77.931611456573833
      0.90090090090090091	78.258993864818194
      0.90340340340340342	78.588925866643436
      0.90590590590590592	78.921458140493939
      0.90840840840840842	79.256642372016643
      0.91091091091091092	79.594531274073034
      0.91341341341341342	79.935178607148629
      0.91591591591591592	80.278639200167689
      0.91841841841841843	80.624968971721273
      0.92092092092092093	80.974224951716806
      0.92342342342342343	81.32646530345751
      0.92592592592592593	81.68174934616026
      0.92842842842842843	82.040137577920518
      0.93093093093093093	82.401691699133252
      0.93343343343343343	82.766474636378845
      0.93593593593593594	83.134550566783204
      0.93843843843843844	83.505984942861545
      0.94094094094094094	83.88084451785538
      0.94344344344344344	84.259197371572469
      0.94594594594594594	84.641112936739773
      0.94844844844844844	85.026662025879489
      0.95095095095095095	85.415916858718674
      0.95345345345345345	85.808951090142855
      0.95595595595595595	86.205839838704563
      0.95845845845845845	86.606659715697674
      0.96096096096096095	87.011488854808903
      0.96346346346346345	87.420406942357673
      0.96596596596596596	87.833495248136288
      0.96846846846846846	88.250836656862063
      0.97097097097097096	88.672515700253712
      0.97347347347347346	89.09861858974422
      0.97597597597597596	89.529233249842918
      0.97847847847847846	89.964449352159548
      0.98098098098098097	90.404358350103493
      0.98348348348348347	90.849053514271475
      0.98598598598598597	91.298629968537369
      0.98848848848848847	91.753184726858137
      0.99099099099099097	92.212816730809877
      0.99349349349349347	92.677626887868612
      0.99599599599599598	93.147718110450498
      0.99849849849849848	93.623195355726409
      1.0010010010010011	94.104165666226407
      1.0035035035035036	94.590738211249487
      1.0060060060060061	95.08302432909484
      1.0085085085085086	95.581137570130551
      1.0110110110110111	96.085193740716591
      1.0135135135135136	96.595310947998826
      1.0160160160160161	97.111609645591315
      1.0185185185185186	97.63421268016458
      1.0210210210210211	98.16324533895758
      1.0235235235235236	98.698835398231751
      1.0260260260260261	99.241113172685829
      1.0285285285285286	99.790211565850285
      1.0310310310310311	100.34626612148084
      1.0335335335335336	100.90941507597081
      1.0360360360360361	101.47979941180238
      1.0385385385385386	102.05756291205735
      1.0410410410410411	102.64285221600836
      1.0435435435435436	103.23581687581181
      1.0460460460460461	103.83660941432436
      1.0485485485485486	104.44538538406515
      1.0510510510510511	105.06230342734641
      1.0535535535535536	105.68752533759543
      1.0560560560560561	106.32121612189161
      1.0585585585585586	106.96354406474235
      1.0610610610610611	107.61468079312242
      1.0635635635635636	108.27480134280168
      1.0660660660660661	108.94408422598654
      1.0685685685685686	109.62271150030115
      1.0710710710710711	110.31086883913474
      1.0735735735735736	111.008745603382
      1.0760760760760761	111.71653491460404
      1.0785785785785786	112.43443372963802
      1.0810810810810811	113.16264291668372
      1.0835835835835836	113.9013673328966
      1.0860860860860861	114.65081590351664
      1.0885885885885886	115.41120170256355
      1.0910910910910911	116.18274203512887
      1.0935935935935936	116.96565852129689
      1.0960960960960962	117.76017718172595
      1.0985985985985987	118.56652852492323
      1.1011011011011012	119.38494763624614
      1.1036036036036037	120.21567426866442
      1.1061061061061062	121.05895293531754
      1.1086086086086087	121.91503300390279
      1.1111111111111112	122.78416879293002
      1.1136136136136137	123.66661966987972
      1.1161161161161162	124.56265015130204
      1.1186186186186187	125.47253000489465
      1.1211211211211212	126.39653435359862
      1.1236236236236237	127.3349437817518
      1.1261261261261262	128.28804444334008
      1.1286286286286287	129.25612817238803
      1.1311311311311312	130.23949259553052
      1.1336336336336337	131.23844124680858
      1.1361361361361362	132.25328368473274
      1.1386386386386387	133.28433561165875
      1.1411411411411412	134.33191899552065
      1.1436436436436437	135.39636219396789
      1.1461461461461462	136.47800008095311
      1.1486486486486487	137.57717417581904
      1.1511511511511512	138.6942327749334
      1.1536536536536537	139.82953108592156
      1.1561561561561562	140.98343136454801
      1.1586586586586587	142.15630305429852
      1.1611611611611612	143.34852292871562
      1.1636636636636637	144.56047523654166
      1.1661661661661662	145.79255184972402
      1.1686686686686687	147.04515241433862
      1.1711711711711712	148.31868450448877
      1.1736736736736737	149.61356377923755
      1.1761761761761762	150.93021414263274
      1.1786786786786787	152.26906790688508
      1.1811811811811812	153.63056595876114
      1.1836836836836837	155.01515792925355
      1.1861861861861862	156.42330236659271
      1.1886886886886887	157.85546691266492
      1.1911911911911912	159.31212848290357
      1.1936936936936937	160.7937734497207
      1.1961961961961962	162.3008978295484
      1.1986986986986987	163.83400747355978
      1.2012012012012012	165.39361826214159
      1.2037037037037037	166.98025630319114
      1.2062062062062062	168.59445813431205
      1.2087087087087087	170.23677092898455
      1.2112112112112112	171.90775270678756
      1.2137137137137137	173.60797254775119
      1.2162162162162162	175.33801081091985
      1.2187187187187187	177.09845935720776
      1.2212212212212212	178.88992177662976
      1.2237237237237237	180.71301361999258
      1.2262262262262262	182.56836263513276
      1.2287287287287287	184.45660900778927
      1.2312312312312312	186.37840560720053
      1.2337337337337337	188.33441823651714
      1.2362362362362362	190.32532588812347
      1.2387387387387387	192.35182100396281
      1.2412412412412412	194.41460974096279
      1.2437437437437437	196.51441224165939
      1.2462462462462462	198.65196291011975
      1.2487487487487487	200.82801069326598
      1.2512512512512513	203.04331936770384
      1.2537537537537538	205.29866783216238
      1.2562562562562563	207.59485040565224
      1.2587587587587588	209.93267713145272
      1.2612612612612613	212.31297408703938
      1.2637637637637638	214.73658370006623
      1.2662662662662663	217.20436507051872
      1.2687687687687688	219.71719429915561
      1.2712712712712713	222.27596482236015
      1.2737737737737738	224.88158775352343
      1.2762762762762763	227.53499223108437
      1.2787787787787788	230.23712577335391
      1.2812812812812813	232.98895464025267
      1.2837837837837838	235.79146420209392
      1.2862862862862863	238.64565931554617
      1.2887887887887888	241.55256470691197
      1.2912912912912913	244.51322536286227
      1.2937937937937938	247.52870692876772
      1.2962962962962963	250.60009611477133
      1.2987987987987988	253.72850110974929
      1.3013013013013013	256.91505200330943
      1.3038038038038038	260.16090121597932
      1.3063063063063063	263.46722393773899
      1.3088088088088088	266.83521857505593
      1.3113113113113113	270.26610720658283
      1.3138138138138138	273.76113604768096
      1.3163163163163163	277.32157592393588
      1.3188188188188188	280.94872275383443
      1.3213213213213213	284.64389804077479
      1.3238238238238238	288.40844937458502
      1.3263263263263263	292.24375094272824
      1.3288288288288288	296.15120405137566
      1.3313313313313313	300.13223765653186
      1.3338338338338338	304.18830890539999
      1.3363363363363363	308.32090368817796
      1.3388388388388388	312.53153720047959
      1.3413413413413413	316.82175451657821
      1.3438438438438438	321.19313117367392
      1.3463463463463463	325.64727376738858
      1.3488488488488488	330.18582055869655
      1.3513513513513513	334.81044209250217
      1.3538538538538538	339.52284182807938
      1.3563563563563563	344.3247567815917
      1.3588588588588588	349.21795818091493
      1.3613613613613613	354.20425213298807
      1.3638638638638638	359.28548030392295
      1.3663663663663663	364.46352061210496
      1.3688688688688688	369.74028793452317
      1.3713713713713713	375.11773482657031
      1.3738738738738738	380.59785225555822
      1.3763763763763763	386.18267034819758
      1.3788788788788788	391.87425915229511
      1.3813813813813813	397.67472941292584
      1.3838838838838838	403.58623336334108
      1.3863863863863863	409.6109655308781
      1.3888888888888888	415.751163558141
      1.3913913913913913	422.00910903972687
      1.3938938938938938	428.3871283747751
      1.3963963963963963	434.88759363562258
      1.3988988988988988	441.51292345285174
      1.4014014014014013	448.2655839170227
      1.4039039039039038	455.148089497385
      1.4064064064064064	462.16300397786915
      1.4089089089089089	469.3129414106632
      1.4114114114114114	476.60056708768275
      1.4139139139139139	484.02859853024887
      1.4164164164164164	491.59980649729198
      1.4189189189189189	499.31701601240474
      1.4214214214214214	507.18310741007195
      1.4239239239239239	515.20101740140933
      1.4264264264264264	523.37374015974831
      1.4289289289289289	531.70432842640969
      1.4314314314314314	540.19589463701061
      1.4339339339339339	548.85161206865826
      1.4364364364364364	557.67471600838508
      1.4389389389389389	566.66850494318669
      1.4414414414414414	575.83634177202828
      1.4439439439439439	585.18165504018953
      1.4464464464464464	594.70794019632388
      1.4489489489489489	604.41876087261119
      1.4514514514514514	614.31775018838994
      1.4539539539539539	624.40861207765715
      1.4564564564564564	634.69512264083107
      1.4589589589589589	645.18113152117576
      1.4614614614614614	655.87056330629093
      1.4639639639639639	666.76741895507598
      1.4664664664664664	677.87577725058122
      1.4689689689689689	689.19979627916348
      1.4714714714714714	700.74371493636943
      1.4739739739739739	712.51185445997271
      1.4764764764764764	724.50861999059646
      1.4789789789789789	736.73850216035737
      1.4814814814814814	749.20607870997014
      1.4839839839839839	761.91601613475882
      1.4864864864864864	774.87307136002096
      1.4889889889889889	788.08209344619968
      1.4914914914914914	801.5480253243187
      1.4939939939939939	815.27590556214159
      1.4964964964964964	829.27087016151927
      1.4989989989989989	843.53815438739389
      1.5015015015015014	858.08309462893101
      1.5040040040040039	872.91113029325402
      1.5065065065065064	888.02780573225971
      1.5090090090090089	903.43877220299612
      1.5115115115115114	919.14978986208632
      1.5140140140140139	935.16672979468547
      1.5165165165165164	951.49557607845986
      1.5190190190190189	968.14242788308013
      1.5215215215215214	985.11350160572192
      1.5240240240240239	1002.4151330430693
      1.5265265265265264	1020.0537796003189
      1.5290290290290289	1038.0360225376819
      1.5315315315315314	1056.3685692548845
      1.5340340340340339	1075.0582556141662
      1.5365365365365364	1094.1120483022764
      1.5390390390390389	1113.5370472319707
      1.5415415415415414	1133.3404879835075
      1.5440440440440439	1153.5297442866424
      1.5465465465465464	1174.1123305436224
      1.5490490490490489	1195.0959043936748
      1.5515515515515514	1216.4882693194877
      1.5540540540540539	1238.2973772961736
      1.5565565565565564	1260.5313314832092
      1.5590590590590589	1283.1983889598353
      1.5615615615615615	1306.3069635044023
      1.5640640640640642	1329.8656284181432
      1.5665665665665667	1353.8831193938313