[Format]      =  4.0
[Frequency]   =  0
[Precision]   =  1e-08
[MinAngle]    =  30
[Depth]       =  20
[LengthUnits] =  millimeters
[ProblemType] =  planar
[Coordinates] =  cartesian
[ACSolver]    =  0
[PrevSoln]    = ""
[PrevType]    =  0
[Comment]     =  "Case 3 permanent magnet to steel interface separation"
[PointProps]  =  0
[BdryProps]   = 1
  <BeginBdry>
    <BdryName> = "A0"
    <BdryType> = 0
    <A_0> = 0
    <A_1> = 0
    <A_2> = 0
    <Phi> = 0
    <c0> = 0
    <c0i> = 0
    <c1> = 0
    <c1i> = 0
    <Mu_ssd> = 0
    <Sigma_ssd> = 0
  <EndBdry>
[BlockProps]  = 3
  <BeginBlock>
    <BlockName> = "Air"
    <Mu_x> = 1
    <Mu_y> = 1
    <H_c> = 0
    <H_cAngle> = 0
    <J_re> = 0
    <J_im> = 0
    <Sigma> = 0
    <d_lam> = 0
    <Phi_h> = 0
    <Phi_hx> = 0
    <Phi_hy> = 0
    <LamType> = 0
    <LamFill> = 1
    <NStrands> = 0
    <WireD> = 0
    <BHPoints> = 0
  <EndBlock>
  <BeginBlock>
    <BlockName> = "SteelLinear"
    <Mu_x> = 4000
    <Mu_y> = 4000
    <H_c> = 0
    <H_cAngle> = 0
    <J_re> = 0
    <J_im> = 0
    <Sigma> = 0
    <d_lam> = 0
    <Phi_h> = 0
    <Phi_hx> = 0
    <Phi_hy> = 0
    <LamType> = 0
    <LamFill> = 1
    <NStrands> = 0
    <WireD> = 0
    <BHPoints> = 0
  <EndBlock>
  <BeginBlock>
    <BlockName> = "PMLinear"
    <Mu_x> = 1.05
    <Mu_y> = 1.05
    <H_c> = 900000
    <H_cAngle> = 0
    <J_re> = 0
    <J_im> = 0
    <Sigma> = 0
    <d_lam> = 0
    <Phi_h> = 0
    <Phi_hx> = 0
    <Phi_hy> = 0
    <LamType> = 0
    <LamFill> = 1
    <NStrands> = 0
    <WireD> = 0
    <BHPoints> = 0
  <EndBlock>
[CircuitProps]  = 0
[NumPoints] = 14
-20	-20	0	0
120	-20	0	0
120	80	0	0
-20	80	0	0
20	0	0	0
39.5	0	0	0
39.5	38	0	0
40.5	38	0	0
40.5	0	0	0
60	0	0	0
60	50	0	0
20	50	0	0
40.5	12	0	0
39.5	12	0	0
[NumSegments] = 16
0	1	-1	1	0	900	0	0	-1
1	2	-1	1	0	900	0	0	-1
2	3	-1	1	0	900	0	0	-1
3	0	-1	1	0	900	0	0	-1
4	5	-1	0	0	10	0	0	-1
5	6	-1	0	0	10	0	0	-1
6	7	-1	0	0	10	0	0	-1
7	8	-1	0	0	10	0	0	-1
8	9	-1	0	0	10	0	0	-1
9	10	-1	0	0	10	0	0	-1
10	11	-1	0	0	10	0	0	-1
11	4	-1	0	0	10	0	0	-1
5	8	-1	0	0	20	0	0	-1
8	12	-1	0	0	20	0	0	-1
12	13	-1	0	0	20	0	0	-1
13	5	-1	0	0	20	0	0	-1
[NumArcSegments] = 0
[NumHoles] = 0
[NumBlockLabels] = 4
26	25	2	2.5	0	0	10	1	0
40	6	3	0.59999999999999998	0	0	20	1	0
40	22	1	1	0	0	32	1	0
-10	-10	1	6	0	0	30	1	0
