[Format]      =  4.0
[Frequency]   =  0
[Precision]   =  1e-08
[MinAngle]    =  30
[Depth]       =  20
[LengthUnits] =  millimeters
[ProblemType] =  planar
[Coordinates] =  cartesian
[ACSolver]    =  0
[PrevSoln]    = ""
[PrevType]    =  0
[Comment]     =  "Case 2 pole shoe surface layer / interface perturbation"
[PointProps]  =  0
[BdryProps]   = 1
  <BeginBdry>
    <BdryName> = "A0"
    <BdryType> = 0
    <A_0> = 0
    <A_1> = 0
    <A_2> = 0
    <Phi> = 0
    <c0> = 0
    <c0i> = 0
    <c1> = 0
    <c1i> = 0
    <Mu_ssd> = 0
    <Sigma_ssd> = 0
  <EndBdry>
[BlockProps]  = 3
  <BeginBlock>
    <BlockName> = "Air"
    <Mu_x> = 1
    <Mu_y> = 1
    <H_c> = 0
    <H_cAngle> = 0
    <J_re> = 0
    <J_im> = 0
    <Sigma> = 0
    <d_lam> = 0
    <Phi_h> = 0
    <Phi_hx> = 0
    <Phi_hy> = 0
    <LamType> = 0
    <LamFill> = 1
    <NStrands> = 0
    <WireD> = 0
    <BHPoints> = 0
  <EndBlock>
  <BeginBlock>
    <BlockName> = "SteelLinear"
    <Mu_x> = 4000
    <Mu_y> = 4000
    <H_c> = 0
    <H_cAngle> = 0
    <J_re> = 0
    <J_im> = 0
    <Sigma> = 0
    <d_lam> = 0
    <Phi_h> = 0
    <Phi_hx> = 0
    <Phi_hy> = 0
    <LamType> = 0
    <LamFill> = 1
    <NStrands> = 0
    <WireD> = 0
    <BHPoints> = 0
  <EndBlock>
  <BeginBlock>
    <BlockName> = "Copper"
    <Mu_x> = 1
    <Mu_y> = 1
    <H_c> = 0
    <H_cAngle> = 0
    <J_re> = 0
    <J_im> = 0
    <Sigma> = 58
    <d_lam> = 0
    <Phi_h> = 0
    <Phi_hx> = 0
    <Phi_hy> = 0
    <LamType> = 0
    <LamFill> = 1
    <NStrands> = 0
    <WireD> = 0
    <BHPoints> = 0
  <EndBlock>
[CircuitProps]  = 1
  <BeginCircuit>
    <CircuitName> = "coil"
    <TotalAmps_re> = 1
    <TotalAmps_im> = 0
    <CircuitType> = 1
  <EndCircuit>
[NumPoints] = 30
-20	-20	0	0
120	-20	0	0
120	110	0	0
-20	110	0	0
0	0	0	0
100	0	0	0
100	20	0	0
60	20	0	0
60	60	0	0
40	60	0	0
40	20	0	0
0	20	0	0
30	60	0	0
70	60	0	0
70	70	0	0
30	70	0	0
20	70.200000000000003	0	0
80	70.200000000000003	0	0
80	90	0	0
20	90	0	0
32	69.799999999999997	0	0
68	69.799999999999997	0	0
20	25	0	0
34	25	0	0
34	55	0	0
20	55	0	0
66	25	0	0
80	25	0	0
80	55	0	0
66	55	0	0
[NumSegments] = 30
0	1	-1	1	0	900	0	0	-1
1	2	-1	1	0	900	0	0	-1
2	3	-1	1	0	900	0	0	-1
3	0	-1	1	0	900	0	0	-1
4	5	-1	0	0	10	0	0	-1
5	6	-1	0	0	10	0	0	-1
6	7	-1	0	0	10	0	0	-1
7	8	-1	0	0	10	0	0	-1
8	9	-1	0	0	10	0	0	-1
9	10	-1	0	0	10	0	0	-1
10	11	-1	0	0	10	0	0	-1
11	4	-1	0	0	10	0	0	-1
12	9	-1	0	0	11	0	0	-1
8	13	-1	0	0	11	0	0	-1
13	14	-1	0	0	11	0	0	-1
14	15	-1	0	0	11	0	0	-1
15	12	-1	0	0	11	0	0	-1
16	17	-1	0	0	12	0	0	-1
17	18	-1	0	0	12	0	0	-1
18	19	-1	0	0	12	0	0	-1
19	16	-1	0	0	12	0	0	-1
20	21	-1	0	0	16	0	0	-1
22	23	-1	0	0	20	0	0	-1
23	24	-1	0	0	20	0	0	-1
24	25	-1	0	0	20	0	0	-1
25	22	-1	0	0	20	0	0	-1
26	27	-1	0	0	21	0	0	-1
27	28	-1	0	0	21	0	0	-1
28	29	-1	0	0	21	0	0	-1
29	26	-1	0	0	21	0	0	-1
[NumArcSegments] = 0
[NumHoles] = 0
[NumBlockLabels] = 6
10	10	2	4	0	0	10	1	0
50	65	2	1.5	0	0	11	1	0
50	80	2	3	0	0	12	1	0
27	40	3	2	1	0	20	100	0
73	40	3	2	1	0	21	-100	0
-10	-10	1	6	0	0	30	1	0
